Version 4
SHEET 1 2132 760
WIRE 448 80 432 80
WIRE 592 80 448 80
WIRE 672 80 656 80
WIRE 800 80 672 80
WIRE 880 80 864 80
WIRE 960 80 880 80
WIRE 1088 80 1024 80
WIRE 1168 80 1088 80
WIRE 1264 80 1168 80
WIRE 1616 80 1520 80
WIRE 368 112 368 80
WIRE 448 112 448 80
WIRE 672 112 672 80
WIRE 880 112 880 80
WIRE 320 128 288 128
WIRE 1088 144 1088 80
WIRE 32 208 32 176
WIRE 144 208 32 208
WIRE 160 208 160 176
WIRE 160 208 144 208
WIRE 416 208 368 208
WIRE 448 208 448 176
WIRE 448 208 416 208
WIRE 544 240 544 224
WIRE 752 240 752 224
WIRE 416 256 416 208
WIRE 880 256 880 176
WIRE 880 256 416 256
WIRE 1168 272 1168 80
WIRE 1168 272 1120 272
WIRE 288 288 288 128
WIRE 320 288 288 288
WIRE 288 320 288 288
WIRE 288 320 272 320
WIRE 672 320 672 176
WIRE 672 320 480 320
WIRE 144 384 144 208
WIRE 368 384 368 304
WIRE 368 384 144 384
WIRE 656 384 368 384
WIRE 752 384 752 336
WIRE 752 384 656 384
WIRE 1088 384 1088 208
WIRE 1088 384 752 384
WIRE 1392 384 1392 176
WIRE 1392 384 1088 384
WIRE 1616 384 1616 144
WIRE 1616 384 1392 384
WIRE 144 432 144 384
WIRE 1184 544 1120 544
WIRE 1280 544 1248 544
WIRE 1296 544 1280 544
WIRE 1424 544 1360 544
WIRE 1488 544 1424 544
WIRE 1568 544 1552 544
WIRE 1648 544 1568 544
WIRE 1792 544 1712 544
WIRE 1904 544 1792 544
WIRE 1568 560 1568 544
WIRE 1280 576 1280 544
WIRE 1904 592 1904 544
WIRE 912 608 896 608
WIRE 960 624 960 592
WIRE 1056 624 960 624
WIRE 1120 624 1120 544
WIRE 1120 624 1056 624
WIRE 912 640 912 608
WIRE 1056 640 1056 624
WIRE 656 752 656 384
WIRE 656 752 352 752
WIRE 912 752 912 720
WIRE 912 752 656 752
WIRE 1280 752 1280 640
WIRE 1280 752 912 752
WIRE 1792 752 1792 608
WIRE 1792 752 1280 752
WIRE 1904 752 1904 656
WIRE 1904 752 1792 752
FLAG 160 96 CLK
FLAG 272 320 CLK
FLAG 32 96 Vin
FLAG 144 432 0
FLAG 544 144 Vin
FLAG 752 144 Vin
FLAG 368 80 Vin
FLAG 352 672 NCLK
FLAG 480 320 NCLK
FLAG 960 592 NCLK
FLAG 832 608 NCLK
FLAG 1424 608 CLK
FLAG 1568 624 NCLK
SYMBOL voltage 32 80 R0
WINDOW 123 0 0 Left 0
WINDOW 39 0 0 Left 0
SYMATTR InstName V1
SYMATTR Value 5
SYMBOL voltage 160 80 R0
WINDOW 3 -102 -144 Left 2
WINDOW 123 0 0 Left 0
WINDOW 39 24 44 Left 2
SYMATTR InstName V2
SYMATTR Value PULSE(0 5 0 10ns 10ns .5us 1us)
SYMBOL cap 432 112 R0
SYMATTR InstName C1
SYMATTR Value 4.7µF
SYMBOL schottky 368 96 R270
WINDOW 0 32 32 VTop 2
WINDOW 3 0 32 VBottom 2
SYMATTR InstName D1
SYMATTR Value 1N5817
SYMATTR Description Diode
SYMATTR Type diode
SYMBOL schottky 592 96 R270
WINDOW 0 32 32 VTop 2
WINDOW 3 0 32 VBottom 2
SYMATTR InstName D2
SYMATTR Value 1N5817
SYMATTR Description Diode
SYMATTR Type diode
SYMBOL schottky 800 96 R270
WINDOW 0 32 32 VTop 2
WINDOW 3 0 32 VBottom 2
SYMATTR InstName D3
SYMATTR Value 1N5817
SYMATTR Description Diode
SYMATTR Type diode
SYMBOL res 736 128 R0
WINDOW 3 25 326 Left 2
SYMATTR InstName R3
SYMATTR Value 1
SYMBOL schottky 960 96 R270
WINDOW 0 32 32 VTop 2
WINDOW 3 0 32 VBottom 2
SYMATTR InstName D4
SYMATTR Value 1N5817
SYMATTR Description Diode
SYMATTR Type diode
SYMBOL cap 1072 144 R0
SYMATTR InstName C4
SYMATTR Value 10µf
SYMBOL load 1600 80 R0
WINDOW 123 0 0 Left 0
WINDOW 39 0 0 Left 0
SYMATTR InstName I1
SYMATTR Value .2
SYMBOL PowerProducts\\LT1084-12 1392 80 R0
SYMATTR InstName U1
SYMBOL cap 1248 528 R90
WINDOW 0 0 32 VBottom 2
WINDOW 3 32 32 VTop 2
SYMATTR InstName C5
SYMATTR Value 2.2µf
SYMBOL cap 1408 544 R0
SYMATTR InstName C6
SYMATTR Value 2.2µf
SYMBOL voltage 352 656 R0
WINDOW 3 -162 -56 Left 2
WINDOW 123 0 0 Left 0
WINDOW 39 -162 -28 Left 2
SYMATTR InstName V3
SYMATTR Value PULSE(0 5 .5us 10ns 10ns .5us 1us)
SYMBOL cap 656 112 R0
SYMATTR InstName C2
SYMATTR Value 4.7µF
SYMBOL cap 864 112 R0
SYMATTR InstName C3
SYMATTR Value 4.7µF
SYMBOL schottky 1264 576 R0
SYMATTR InstName D6
SYMATTR Value RBR30T60A
SYMATTR Description Diode
SYMATTR Type diode
SYMBOL schottky 1360 528 R90
WINDOW 0 0 32 VBottom 2
WINDOW 3 32 32 VTop 2
SYMATTR InstName D8
SYMATTR Value RBR30T60A
SYMATTR Description Diode
SYMATTR Type diode
SYMBOL cap 896 592 R90
WINDOW 0 0 32 VBottom 2
WINDOW 3 32 32 VTop 2
SYMATTR InstName C7
SYMATTR Value 10nf
SYMBOL res 896 624 R0
SYMATTR InstName R2
SYMATTR Value 1k
SYMBOL schottky 1552 528 R90
WINDOW 0 0 32 VBottom 2
WINDOW 3 32 32 VTop 2
SYMATTR InstName D5
SYMATTR Value RBR30T60A
SYMATTR Description Diode
SYMATTR Type diode
SYMBOL cap 1552 560 R0
SYMATTR InstName C8
SYMATTR Value 2.2µf
SYMBOL schottky 1712 528 R90
WINDOW 0 0 32 VBottom 2
WINDOW 3 32 32 VTop 2
SYMATTR InstName D7
SYMATTR Value RBR30T60A
SYMATTR Description Diode
SYMATTR Type diode
SYMBOL cap 1776 544 R0
SYMATTR InstName C9
SYMATTR Value 2.2µf
SYMBOL load 1920 656 R180
WINDOW 123 0 0 Left 0
WINDOW 39 0 0 Left 0
SYMATTR InstName I2
SYMATTR Value .1
SYMBOL nmos 320 208 R0
SYMATTR InstName M1
SYMATTR Value BSC123N08NS3
SYMBOL pmos 320 208 M180
WINDOW 3 -94 112 Left 2
SYMATTR InstName M2
SYMATTR Value RSS070P05
TEXT -2 474 Left 2 !.tran 1ms
